Circuit: * C:\Users\t0264096\Documents\Stage Marvyn Pannetier\LTspice\PUSH PULL PMOS NMOS WITH FINAL FILTER.asc

WARNING: Node N005 is floating.

Instance "m:u4:1": Width narrower than recommended for a level 3 MOSFET.
Instance "m:u3:1": Width narrower than recommended for a level 3 MOSFET.
Instance "m:u2:1": Width narrower than recommended for a level 3 MOSFET.
Instance "m:u1:1": Width narrower than recommended for a level 3 MOSFET.
Direct Newton iteration for .op point succeeded.
Note: .fourier statements are only valid with a .tran command.
      No Fourier analysis performed.


Date: Wed Jul 27 14:18:48 2022
Total elapsed time: 0.301 seconds.

tnom = 27
temp = 27
method = trap
totiter = 5
traniter = 0
tranpoints = 0
accept = 0
rejected = 0
matrix size = 62
fillins = 38
solver = Normal
Matrix Compiler1:     272 opcodes
Matrix Compiler2: 5.37 KB object code size

