Circuit: * C:\Users\t0264096\Documents\Stage Marvyn Pannetier\LTspice\PUSH PULL PMOS NMOS WITH FINAL FILTER + choke.asc

Instance "m:u2:1": Width narrower than recommended for a level 3 MOSFET.
Instance "m:u1:1": Width narrower than recommended for a level 3 MOSFET.
Instance "m:u4:1": Width narrower than recommended for a level 3 MOSFET.
Instance "m:u3:1": Width narrower than recommended for a level 3 MOSFET.
Direct Newton iteration for .op point succeeded.
Heightened Def Con from 0.000553017 to 0.000553018
Heightened Def Con from 0.00106309 to 0.00106309
Heightened Def Con from 0.00126195 to 0.00126195
Heightened Def Con from 0.00136195 to 0.00136195
Heightened Def Con from 0.00156194 to 0.00156195
Heightened Def Con from 0.00206195 to 0.00206195
Heightened Def Con from 0.00226195 to 0.00226197
Heightened Def Con from 0.00236195 to 0.00236197
Heightened Def Con from 0.00266195 to 0.00266195
Heightened Def Con from 0.00286195 to 0.00286195
Heightened Def Con from 0.00296195 to 0.00296195
Heightened Def Con from 0.00346195 to 0.00346195
Heightened Def Con from 0.00366195 to 0.00366195
Heightened Def Con from 0.00386195 to 0.00386195
Heightened Def Con from 0.00426195 to 0.00426195
Heightened Def Con from 0.00466195 to 0.00466195
Heightened Def Con from 0.00486194 to 0.00486194
Heightened Def Con from 0.00546195 to 0.00546195
Heightened Def Con from 0.00566194 to 0.00566194
Heightened Def Con from 0.00576195 to 0.00576195
.fourier quantity "V(sin)" not pressent in data.
.fourier quantity "V(sin2)" not pressent in data.


Date: Tue Jul 26 10:34:36 2022
Total elapsed time: 51.145 seconds.

tnom = 27
temp = 27
method = modified trap
totiter = 2811578
traniter = 2811570
tranpoints = 1142195
accept = 899570
rejected = 242645
matrix size = 61
fillins = 45
solver = Normal
Matrix Compiler1: 5.01 KB object code size  1.0/0.6/[0.4]
Matrix Compiler2: 5.49 KB object code size  0.4/0.8/[0.4]


